<?xml version="1.0" encoding="UTF-8"?>

<!-- generated on Wed Aug 26 09:01:42 2015 by SUMO duarouter Version dev-SVN-r18727I
<?xml version="1.0" encoding="UTF-8"?>

<configuration xmlns:xsi="http://www.w3.org/2001/XMLSchema-instance" xsi:noNamespaceSchemaLocation="http://sumo.dlr.de/xsd/duarouterConfiguration.xsd">

    <input>
        <net-file value="../TAPASCologne-0.24.0/cologne2.net.xml"/>
        <additional-files value="../TAPASCologne-0.24.0/vtypes.add.xml"/>
        <route-files value="cologne.rou.xml"/>
    </input>

    <output>
        <output-file value="cologne6to8.rou.xml"/>
        <vtype-output value="vtypes.xml"/>
    </output>

    <processing>
        <skip-new-routes value="true"/>
    </processing>

    <time>
        <begin value="21600"/>
        <end value="28801"/>
    </time>

    <report>
        <log value="6to8log"/>
    </report>

</configuration>
-->

<routes>
    <vehicle id="34652_34652_352_0"  depart="0">
        <route edges="145680561#0 -145680561#1 145680558#2 145680558#3 274295989#5 274295989#1 274295989#2 -220530760#1 -145676907#2 -145680557#5 -145680557#3 -145680557#2 145687075 145671610#0 145671610#2 145671610#4 145671609#0 145671609#2 132540161#0 132540161#1 132540161#2 132540161#3 275825294#0 275825294#1 275825294#5 138359799#0 138359799#1 85417911 85417918#0 85417918#2 -160207521#1 -85417941#1 -85417941#0 -140559827#1 -45382183 -33432713#4 -33432713#3 -33432714 -33431432#3 -33431432#1 -33431432#0 -33434245#1 -42551572#2 -42551572#1 -42551572#0 -352041950 -132409810 -352041948 -160207496 -188639781#10 -188639781#6 -188639781#5 -188639781#4 -188639781#2 -188639781#1 131383238#0 281213053#0 338407168#0 131383236#0 37131468#0 138735056 176886892#0 198159809#0 198159809#4 45437584#2 5170002 65355063#0 217948270 52583987#0 132405376#0 161683114#0 132405248#0 132405247#3 -132405247#0 210469109#5 45437755#6 293781697 -132405238 132405256 132405266#1 132405266#2 132405266#4 -132405274#2 332301933#0 205961481#0 205961481#2 149665000 37744227#4 37744227#5 37744227#6 204177818#0 36772534#0 36772534#3 24037708#0 41836764 24035788#0 37873581 142301793 37791102#2 37791102#3 37791102#4 22949991 202650029#0 154755109 219188460#0 219188460#1 154755110 86415860#0 86415860#1 88680005#0 203971499#0 203971501 4400318#0 4400318#3 48591635#0 23568429 48591634 50557487 188052918#1 154755085#0 154755085#1 83703645 23493040 23493177#0 326986553 154755115#0 4400297#0 53212167#0"/>
    </vehicle>

    <vehicle id="34652_34652_352_1"  depart="0">
        <route edges="145680561#0 -145680561#1 145680558#2 145680558#3 274295989#5 274295989#1 274295989#2 -220530760#1 -145676907#2 -145680557#5 -145680557#3 -145680557#2 145687075 145671610#0 145671610#2 145671610#4 145671609#0 145671609#2 132540161#0 132540161#1 132540161#2 132540161#3 275825294#0 275825294#1 275825294#5 138359799#0 138359799#1 85417911 85417918#0 85417918#2 -160207521#1 -85417941#1 -85417941#0 -140559827#1 -45382183 -33432713#4 -33432713#3 -33432714 -33431432#3 -33431432#1 -33431432#0 -33434245#1 -42551572#2 -42551572#1 -42551572#0 -352041950 -132409810 -352041948 -160207496 -188639781#10 -188639781#6 -188639781#5 -188639781#4 -188639781#2 -188639781#1 131383238#0 281213053#0 338407168#0 131383236#0 37131468#0 138735056 176886892#0 198159809#0 198159809#4 45437584#2 5170002 65355063#0 217948270 52583987#0 132405376#0 161683114#0 132405248#0 132405247#3 -132405247#0 210469109#5 45437755#6 293781697 -132405238 132405256 132405266#1 132405266#2 132405266#4 -132405274#2 332301933#0 205961481#0 205961481#2 149665000 37744227#4 37744227#5 37744227#6 204177818#0 36772534#0 36772534#3 24037708#0 41836764 24035788#0 37873581 142301793 37791102#2 37791102#3 37791102#4 22949991 202650029#0 154755109 219188460#0 219188460#1 154755110 86415860#0 86415860#1 88680005#0 203971499#0 203971501 4400318#0 4400318#3 48591635#0 23568429 48591634 50557487 188052918#1 154755085#0 154755085#1 83703645 23493040 23493177#0 326986553 154755115#0 4400297#0 53212167#0"/>
    </vehicle>

    <vehicle id="35936_35936_355_0"  depart="0">
        <route edges="132610077#0 132610062#3 132610108#0 225924659#2 -283068690 283068690 225924661 132610106#0 225924653#1 229091497 132610116#0 225924662#2 -283068688 -225924658 225924655 283068676 283068674 283080515 283080504 238865723 283080498 283080519 133860033 283076458 283076458-AddedOffRampEdge 132614489 132614482 258491539 258491536 132624375 258491542 258503935 258503936 193706950 208913376 206716755 206716768 242756121#0 -254177412 254177419 29292920#0 42940828#1 26803131#2 42940830 49188342 355192747#0 95778803#0 205979457#0"/>
    </vehicle>
    <vehicle id="36926_36926_357_0"  depart="0">
        <route edges="29248220#0 29434981#0 29434981#1 -47040578#2 -210097370#3 -210097370#1 -210097370#0 -31302735#2 -31302719#1 -9475852 -147058244 -147058245#1 -147059182#0 -348719450 -254655129 254655128#0 254655128#1 45492447#0 45492447#1 45492447#2 245700272 146235968 146235963 245703240 146235974#0 146235974#2 30093479#5 30093479#12 30093479#14 30093479#15 30093479#17 30093479#20 30093479#22 30093479#28 -35954404#1 -35954404#0 -146236043#3 -146236043#1 -146236043#0 -120302892#3 -120302892#0 -36138031#0 -23945020#1 -23945020#0 -35369182#2 -35369182#0 -45775194#1 -45775194#0 -44006846#4 30897161#0 -146236013 -44006848#3 -48274789#4 -33841555#1 37744231 -45332573#5 100008222#0 -268165208#1 -268165208#0 -27002524 27002520#0 27002520#5 37131476#0 36690313#0 132405274#0 176517870#0 176517870#1 132405269 132405280#0 132405281#0"/>
    </vehicle>
    <vehicle id="37937_37937_358_0"  depart="0">
        <route edges="328974180 133852448-AddedOnRampEdge 133852448 7854060 318226718 10631383 133852451 318226721 318226721-AddedOffRampEdge 4008376 9873116 219698232 10695212 159182247 302370856 325863620 278327345 286321028 328980686 328980686-AddedOffRampEdge 253093566 25698361 328980684 278328108 11624006 80266375 5077407 5552874 30746500 30833219 220567386 11624079#0 226991211 24024442 86144284 22740714 155563747 208424304#0 132653971 132653972#0 23687290 76128217 295644508 157239646 203091859 157140427 65417594 9614234 22909113 60860929 111465042 301084468 321188527 81852046 301084576 338209142 301084567 219188462 132525352 132525347 132406529 338407178#0 258932623#0 258932624#0 70913328#0 -226991212 -131382643#1 -338407179#1 138735056 176886892#0 198159809#0 -5170275#1 -93797455#4 93797453#0 -5170306#0 5170253#0 5170289#0"/>
    </vehicle>
    <vehicle id="38648_38648_359_0"  depart="0">
        <route edges="51793889 -155592914#2 -155592914#1 155592907#2 155592972 -155592973#7 -155592973#5 -155592973#4 -155592973#3 -155592973#2 -155592973#1 -42925825#2 186623965#15 22917421#5 28675510#7 297047306#0 164962474 164930215 -23860555#4 -23860555#2 -23860555#1 -23860555#0 349762012#1 155723651#0 50937076#0 50937076#1 50937076#2 49612856 49612857#0 155798960#0 186642601#0 186642601#3 186642601#5 313598780#0 313598785#0 313598785#2 26207273 313598778#0 313598778#1 131385252#3 313588010#0 166405001#0 166405001#2 166405001#3 363789042 160153675#1 76566357 166354227 32021877#0 32021877#3 29097289#0 75642184 32021879#0 32021879#2 32021879#4 32021879#5 32021879#6 32021879#7 32021879#8 32021879#10 331512938 331512941#0 331512936#0 331512936#7 27460489#0 27460489#2 -5062348 132524624#0 82804453#0 166397972#0 -175920808#1 -186645661#0 -186645664 20440359#0 -186645666 -26585614#5 -26585614#4 -26585614#3 26585615#0 26585615#1 -157383237#2 22757324"/>
    </vehicle>
    <vehicle id="38750_38750_359_0"  depart="0">
        <route edges="8437608#3 -8437608#6 -8437608#2 -189913664#3 -209682829#1 -209682828 -26803015#2 26803013 42940829 209682820#0 42940828#0 42940828#1 26803131#2 42940830 49188342 355192747#0 95778804#0 95778804#3 8603776 24518566#0 24518566#1 189916811 30350825 216669295 342350706#0 30350823#0 258507171 132530779#1 205993401#0 205993401#3 49188340#1 57675168#1 57675168#2 85417969 85417940#0 85417940#2 85417940#3 205976505#2 205976505#4 205976505#5 132540396#0 275833366 132540163#0 132540163#1 132540163#3 132540165#0"/>
    </vehicle>
    <vehicle id="41314_41314_361_0"  depart="0">
        <route edges="25326879#0 24609080#3 118427328#0 118427328#2 118427328#3 31990171#1 151636472 -82717493 -82717495#1 53171914#3 53171914#0 -82717496 -137534980#2 -154552011 128077116 -23175280#2 23175282 23591189 23591186#2 23175285#1 128107874 49211617 253092026 328824936#0 159130585 48417163 219698233 219698233-AddedOffRampEdge 5367056 152263984 26261427 318226704 133829893 150031185 318226709 318226720 318226720-AddedOffRampEdge 7796749 208036880#0 -328974185 -256226573 256226571 187673652 175935722#0 175935722#1 154847795#0 8091276#0 7796753 328974180 133852448-AddedOnRampEdge 133852448 7854060 318226718 10631374 318226732 318226734 25185614"/>
    </vehicle>
    <vehicle id="41690_41690_361_0"  depart="0">
        <route edges="29337995#1 29337995#3 29337995#5 29337995#7 9250113#2 9250113#3 -254620132 -235839983#6 -235839983#4 -235839983#1 -230030905 -230030948 -235840008 -235840005 -235840009#1 -235840009#0 -235840010 -202650119 154520794 235839989#0 267388712 227833724 204177813#0 154520784#0 4229595 202527579 -130140307#3 86121606#0 86121606#1 86121603#0 86121603#2 -27406116#1 -230306387#1 230306383 -27461363 -124760629#1 -31972035#1 -27405957#2 -44498588#8 -44498588#2 -27405729#2 -27405729#1 -203137305#4 203138156 -85695039#5 158196011#0 23151660#0 23151660#1 223276865#0 223276865#2 157393120#0 157393120#1 157393117#7 157393137#0 61225392 61225391 22921227#0 22921228 -157393125 157393607#3 225700794#0 5021136#0 5021136#2 5021136#3"/>
    </vehicle>
    <vehicle id="43455_43455_362_0"  depart="0">
        <route edges="340575954#3 99714977#3 99714977#4 196122462#0 27892605#0 7744833#9 27892604#0 256226570#0 151289341#0 151289341#3 151289341#4 23468305 256226565#0 157559269#0 157559265#0 52613199 52613198#2 29122010 99716592#0 99716592#2 99716592#3 23270906 24965986#0 24965986#3 24965986#6 294783441#0 294783441#1 23074769#2 23074769#3 -204569616 -24388772#1 24388773#1 24388773#2 24388773#3 -24388770#1 24388771#4 24388771#5 24388771#1 -22751033#1 -23088807#3 -23088807#1 -165881454#4"/>
    </vehicle>
    <vehicle id="45689_45689_363_0"  depart="0">
        <route edges="24518549#0 -24518549#2 26803052#10 22673189#0 42940829 209682820#0 42940828#0 42940828#1 26803131#2 42940830 49188342 355192747#0 95778803#0 205979455#0 -306384958 -306384963 -306384964#2 -288106915 -41421234#3 -41421234#2 -41421234#1 -41421234#0 -41421233 -116082045 -31797298 -134892781#1 -154546803#0 146235927#0 185283362 288192130 8659473#0 26493930 42739994#0 26493958 185283366 185283367 185283368 146235935#0 205980874 146235931#0 146235931#2 39551030#2 39551030#3 -153390910#1 -153390910#0 -28817512#3 -146236070#3 -146236070#2 41678295#0 146236125#0 -146235959#0 37744236#0"/>
    </vehicle>
    <vehicle id="47094_47094_364_0"  depart="0">
        <route edges="141241836#1 6187383#2 201168470 144886433#0 6187381#8 6187381#9 144886434#0 144886434#2 159165389 326979312#0 151054056 186453004#0 185273679 203847849#1 203847849#2 151057614#0 151057614#2 144463421 204001545 204001555#0 23543117#0 23714484 151060320#0 151060320#2 138554892#1 37276366#0 4391287#0 322459559 166045376 322459557 322459558#0 50760523#0 50760523#2 191554140 321364560#0 321364562#0 27467901#0 321364563#0 321364563#2 321364561#0 161301814#0 -5069504#2 5069520 201427625#1 57017846#0 205998258 -50848194#6 -50848194#3 32021870 143943669#0 32021871#0 85325828 27114581#0"/>
    </vehicle>
    <vehicle id="47187_47187_364_0"  depart="0">
        <route edges="245122333#2 168898881#0 260192889 41676631 245123471 5069544 24477641 220567384 30746501 5552871 8054393 154842213 278328109 8054394 328980682 328980685 253093567 328984619 302370855 302370855-AddedOffRampEdge 302370860 10695210 31661491-AddedOnRampEdge 31661491 219698234 23450701 24560035 23455340 328974183 133419479 161756374 219701146 219701145 133205612 161756369#0 161756369#1 165025368 24544000 24544029 160604960 160620557 24544019#0 33704075#4 24442791#0 -24442768#1 24442768#0"/>
    </vehicle>
    <vehicle id="48398_48398_366_0"  depart="0">
        <route edges="135926817#0 220356548#0 220356548#1 69403454 69403437#1 69403435#1 69403451 -26658476#0 57039727#0 220351815#0 164211351#0 -29549652 -148324137#13 -148324137#10 -264791811 -132545224#5 -132545224#3 -132545224#1 132540165#0 132540165#2 275833366 132540394#0 132540394#2 275833365#1 275833365#2 159576258 132540354 132540217 158695458 132539906 283073226 283073225 25798236 283068673 125777193 283068678 235824473 4400127 144906994 144906990 4400129 235824485 235824478#0 230941900 230941903 29233646 235820561 7757522 235820588 235820590 128423233 -235820583 -20644383 -202524703 202524698 202524697 36253946#0 36253946#2 -129325682 -254657880 -150921686#1 -202544069 -30853755#2 61733077#2 53028343#0 5217080#0"/>
    </vehicle>
    <vehicle id="49132_49132_367_0"  depart="0">
        <route edges="-314053404 -31978819#4 31978819#0 20456481#0 59465729#4 314053405#0 314053405#2 26585613#0 26585613#1 26585613#2 26585613#3 49601985#1 49601985#2 26585614#0 26585614#4 26585614#5 186645666 186645665 186645664 186645661#0 186645661#1 132524620 201954462#0 205994022#0 198356552#0 198356552#3 198356552#5 -59390198#1 -225700794#4 5021136#0 5021136#2 5021136#3"/>
    </vehicle>
    <vehicle id="33598_33598_351_0"  depart="0">
        <route edges="130147381 130147382#4 28523862 28198821#0 28198821#2 28198821#3 32324544#0 32324544#2 144599476 31557255#0 36227986#0 36227986#4 4145981 -32021294#1 4145970#0 4145970#1 4145970#2 4145970#3 31721950#6 31721950#9 32043304 -8196591#1 32635124 24480095#0 24480095#2 8196655#0 8196655#1 8196655#3 8196655#4 32621361#0 36303928#0 170040391 252966081#0 252966082#0 170040383 22822132#0 22822132#3 22822132#5 61881651#0 61881651#2 -193546035#1 31675885 203284213 203284211 122964252 -223766620#8 -309129608#1 309129608#0"/>
    </vehicle>
    <vehicle id="33628_33628_351_0"  depart="0">
        <route edges="155592973#6 -155592973#7 -155592973#5 -155592973#4 -155592973#3 -155592973#2 -155592973#1 -42925825#2 155600123#0 297047310#3 297047310#4 28675493 297047308 28675494#0 297047309#0 297047309#1 295518617#1 295518611 295518618#0 295518618#4 295518607 295518615 295518616#1 59458722#0 155422547 295516790 295525104 157239646 203091859 157140427 65417594 9614234 22909113 60860929 111465042 301084468 321188527 81852046 301084576 132406516 132406510#0 132406523#0 301084571 81852045 301084584 301084580 219205215 219205215-AddedOffRampEdge 155328302 274976185 25478930 111465048#0"/>
    </vehicle>
    <vehicle id="33813_33813_351_0"  depart="0">
        <route edges="20454502#8 314053405#0 314053405#2 26585613#0 26585613#1 26585613#2 26585613#3 49601985#1 49601985#2 26585614#0 26585614#4 26585614#5 186645666 186645665 186645664 186645661#0 186645661#1 132524620 201954462#0 205994022#0 5057250 49931147#0 198356548#0 198356548#1 198356548#4 198356548#5 362558746 -206084893 -51574945#1 -339822112#3 -339822112#2 -339822113 -343201176#4 -155289634#2 4003444#0 343200137#0 24257357#0 24257216#0 343200138#0 32021857 343200135 32021859#0 32021859#1 343200139#0 343200139#3 343200139#4 -34951550#1 -34951550#0 254565291#0 272288779#0 254565591#0 36590984#0 36590984#1 36590984#2 60342000#0 150031245#0 47426157 28542886#0 28542886#1 28542886#2 166222937#0 145474195#0 4380937#0 4380937#2 4380937#3 145575263#0 53265910#0 186465744 27404213#0 118041104#0 115106778#2 115106778#3 26784170#0 25150041#0 25150041#1 10212092#0 -20185105 24693845#0 24693834#0 24693834#1 51767045#0 154502572#0 154502572#1 22598782"/>
    </vehicle>
    <vehicle id="33911_33911_351_0"  depart="1.00">
        <route edges="146515650 275157691 219205206 315647745 132624407 132624417 208913382 244590098 132624414 219205207 132530710 219205211 301084446 219205212 301084451"/>
    </vehicle>
    <vehicle id="34321_34321_352_0"  depart="1.00">
        <route edges="129381503#5 23237365#0 -129381481#2 -129381481#0 -129381482#4 -129381482#2 -129381482#0 -129381478#1 -129381489#4 -129381489#1 143542027#0 143542027#1 213207954 331523378#0 331523378#1 331523378#2 36875282#0 157339628 29432728 4534487 32903006 -31951782#1 -31951782#0 23014984 22949994#0 52303559#0 52303559#1 32029471 -39764938#1 -23487153 154755110 86415860#0 86415860#1 88680005#0 203971499#0 203971501 10318488#0 4400322#0 39606301 189054412 78419224#1 78419226#0 78419226#2 78419226#3 5667170 328877108#0 328877086#3 23574788 24231766 48654842 51348099#0 51348099#1 313982939 51348102#0 51348105#0 135788128#1 9831193#0 -8677670 -24456691#1 7996806"/>
    </vehicle>
    <vehicle id="37066_37066_357_0"  depart="1.00">
        <route edges="23006803 -23006803 8266564#1 -26751739#4 -26751739#2 -26751739#0 26751740#1 94587485#0 -8166420#4 -325447374#0 -75642193#1 20446486 325325158 325325159 325325157 325325156#0 325325156#2 325325156#3 21751168#3 21751168#7 20442831#0 20442831#1 20442831#2"/>
    </vehicle>
    <vehicle id="39331_39331_360_0"  depart="1.00">
        <route edges="86121590#0 86121590#3 230336791#0 230336791#2 130140307#0 -202527579 4229596#0 204177812#0 4400142#0 235824476#0 4400137 25875643 235824485 4400132 235824487 47335015 235824471 235824469 133859192 4008414 283068677 283068675 283068676 283068674 283080515 283080504 238865723 283080498 75503635 283076461 132539932 283080529 132539920 132635726 158695462 318531314 318531315 132408434 329035702 329035702-AddedOffRampEdge 132408419 132408410#0 205272294 -338407172#2 -338407172#1 160797930 129382742#1 129382742#3 129382742#4 132408350 -132408347 -132408349#4 132408349#4"/>
    </vehicle>
    <vehicle id="42073_42073_361_0"  depart="1.00">
        <route edges="45205068#0 186645661#0 186645661#1 132524620 201954462#0 205994022#0 198356552#0 198356552#3 198356552#5 -59390198#1 -225700794#4 -225700794#0 157393607#6"/>
    </vehicle>
    <vehicle id="43551_43551_362_0"  depart="1.00">
        <route edges="24494024#0 24648345 23792805#0 23792805#1 23792805#3 -99716349#4 -24493964#2 24554090#0 24554090#1 210051548 207326010#1 27405533#0 27405533#2 27405533#4 27405533#6 27405537 100135462#0 24554094#0 132071305#5 132071305#6 158196011#0 158196011#4 158196011#5 158196011#9 158196011#10 158196011#11 105002542#3 105002542#0 105002546 5216289#1 5216289#3 5216262#0 5004999#0 5004999#3 -5004997#1 -5004997#0 -5004995#7 -5004995#6 -5004995#5 -5004995#4 -5005004#2 160312590#0 160312590#1 160312590#2 322456246 25606745#0 4882046#0 4882048#0 36590984#2 113160347#0 113160347#1 255104326 51681577#1 321451886 321451887#0 198182234#0 306548771 321451888#0 321451888#3 30767420#0 30767420#2 321456988#0 321456991#0 321456991#2 322459553 168898887#0 166045378 322459560#0 166046314#0 166046314#1 62078860#1 198188181#0 151057658 -205996114#1 23714486#0 89528650 204001544 147860624#0 151054054#0 151054054#1 147726287#0 147726287#2 147726287#3 100132777 326979311 22887858 23686361 141206217 141241832#1 141206211 141206215#0 141206218#0 100138582 203279404 37744222 16367666#0 168912461 37744243#0 111465044 288170546 23562785"/>
    </vehicle>
    <vehicle id="43839_43839_362_0"  depart="1.00">
        <route edges="24466280#5 -24466280#5 -24466280#4 -24466280#2 -24466280#1 31973370#0 31973370#1 43653947#1 43653948#0 43653948#3 -81975346 -31799917#1 124760629#0 27461363 230306384 230306387#0 27406116#0 86121590#0 86121590#3 86121602#0 86121602#2 142766531#0 260977662#0 260977662#1 260977662#3 -142766475#3 -142766475#2 -142766475#1 142766483#0 142766483#1 142766483#2 142766483#3 142766499#1 -142766509#12 -142766509#5 202527577#7 134517228"/>
    </vehicle>
    <vehicle id="45161_45161_362_0"  depart="1.00">
        <route edges="155428550#0 155428550#1 155428551#4 297011918 297011920#1 155424470 297011926#0 184227237 297011916 297011929#1 76128220#0 49532519#0 4936380#2 28367054 132951110#0 155563748 132653974 132653975#0 349776626 4936487#0 4936487#1 4936487#2 4936487#3 4936487#4 -133325745#4 23543134#0 303245866#0 4045173#3 4045173#5 4045173#6 37276365#0"/>
    </vehicle>
    <vehicle id="45223_45223_362_0"  depart="1.00">
        <route edges="23723789#0 287131218#0 287131218#2 -22690872#4 -22690872#3 -22690872#2 28577749#0 22670336 22690843 22690846 24558097#0 159376511#0 23450702#0 23450702#1 219698233 219698233-AddedOffRampEdge 31415356 302370859 302370857 278327345 286321028 328980686 328980686-AddedOffRampEdge 253093566 25698361 328980684 278328108 11624006 80266375 5077407 5552874 4218820 62081149#0 62081149#1 62081145#0 62081151#2 322459554 322459556 321455268 34134571#0 321451885 200810718#0 234895921#0 -234895921#1 -36590982#1 36590983#0 36590983#2 272288774 36590984#0 36590984#1 36590984#2 60342000#0 54609701 27404839#0 27404839#1 27404839#2 29319045#0 29319045#1 27115123#0 27115123#1 27115123#2 27115123#3 32324544#0 32324544#2 144599476 31557255#0 36227986#0 36227986#4 4145981 -32021294#1 -32041420#7 -32041420#6 -32041420#5 -32041420#4 -32041420#3 -32041420#2 -32041420#0 -28639672#4 28639672#2"/>
    </vehicle>
    <vehicle id="45243_45243_362_0"  depart="1.00">
        <route edges="23695206 33845326#0 33845326#1 218138109#7 218138109#9 218138109#12 339751545#0 5078965#0 32021863#0 -353397643 4919992#0 61751607#0 61751607#3 23939237#0 201427624 -314304776 -260094540#1 -35094936#1 -35094936#0 35094937#0 35094937#1 35094937#2 35094937#4 -51240797#5 -51240797#4 -51240797#2 -51240797#1 -51240797#0 52350372 13500779#0"/>
    </vehicle>
    <vehicle id="47143_47143_364_0"  depart="1.00">
        <route edges="363389287#8 137206721#0 -182441348 -141506543#13 -141506543#5 -141506543#4 -141506543#2 -132540068#2 -132540232 -132540069#1 132540398#0 132540398#1 159556201 329143680#0 329143680#1 275825308#1 275825308#3 132540397#0 -205976505#6 -205976505#4 -205976505#3 -132540158#2 -275825294#3 -275825294#0 -132540161#3 -132540161#2 -132540161#1 -132540161#0 -145671608 -145671609#1 -145671610#5 -145671610#3 -145671610#1 4395104 145680557#1 145680557#3 145680557#4 145676907#0 220349689 274295989#3 -145680558#4 -145680558#2 -145680558#1 -145680558#0 -26658343#1 -145680546#4 -145680546#3 145680545"/>
    </vehicle>
    <vehicle id="49359_49359_367_0"  depart="1.00">
        <route edges="59298853#2 164962476#1 119324620 -154554748#3 -154554748#1 23842005#0 23842005#1 219701163#1 24560051 133419477 23450712 133419470#0 24558006#0 154554721 24558097#0 159376511#0 23450702#0 23450702#1 219698233 219698233-AddedOffRampEdge 31415356 302370859 302370857 278327345 286321028 328980686 328980686-AddedOffRampEdge 253093566 25698361 328980684 278328108 11624006 80266375 5077407 5552874 4218820 62081149#0 62081149#1 62081145#0 168898887#0 166045378 322459560#0 166046314#0 166046314#1 62078860#1 198188181#0 151057658 -205996114#1 23714486#0 89528650 204001544 147860624#0 151054054#0 151054054#1 147726287#0 147726287#2 147726287#3 100132777 326979311 22887858 23686361 141206217 141241832#1 141206211 141206215#0 141206218#0 100138582 141230386#0 -37744221 23561431#0 31901074#1 131959462 154874107 -24592789#1 -130752274#1 -8076097 8076097"/>
    </vehicle>
    <vehicle id="49986_49986_367_0"  depart="1.00">
        <route edges="24449167#0 24449167#1 24449167#2 27659684#1 24809267#0 24809267#2 24809267#3 24809267#5 132514084#1 164890287#0 -8195822#6 -8195822#4 173282738#0 150031197#4 150031197#5 150031197#6 150031197#7 173282740 -37637984 8195774 25101965#0 25101965#4 23013042#2"/>
    </vehicle>
    <vehicle id="50313_50313_368_0"  depart="1.00">
        <route edges="347019888#2 -347019888#2 164825971#12 164825971#13 164825971#18 164825970#0 23682203#4 23682203#1 23682204#0 23682924#0 23682926#0 23682927 23682920 364401099#1 118430520 23450698 165025367 219701163#0 219701163#1 24560051 133419477 23450712 133419470#0 24558006#0 154554721 24558097#0 159376511#0 23450702#0 23450702#1 219698233 219698233-AddedOffRampEdge 5367056 152263984 26261427 318226704 133829893 150031185 318226709 318226720 318226720-AddedOffRampEdge 133829890 8088129-AddedOnRampEdge 8088129 325727262 325727261 208036879 325727272 145024227 103884459#0 19975730 285867301#1-AddedOnRampEdge 285867301#1 133858895 325731358 325731358-AddedOffRampEdge 20640857#1 133859049-AddedOnRampEdge 133859049 133859049-AddedOffRampEdge 4008412#1 133859050-AddedOnRampEdge 133859050 235824472 4400131 4400131-AddedOffRampEdge 4400133#0 230941903 29233646 235820561 7757522 235820588 235820590 128423233 -235820583 -20644383 -202524703 202524698 202524697 36253948 202524691 235820575#0 202524690#0 52939257 235820572 235820573 202524692 235820576#0 -16788878#9 -16790172#3 -16790172#1 -16789913#3 -16789913#1 -16789913#0 -264963635#1 -25409747#1 -25409747#0 -16789545#8"/>
    </vehicle>
    <vehicle id="51306_51306_369_0"  depart="1.00">
        <route edges="348719450 -348719450 -254655129 254655128#0 254655128#1 45492447#0 45492447#1 45492447#2 245700272 146235968 146235963"/>
    </vehicle>
    <vehicle id="51569_51569_370_0"  depart="1.00">
        <route edges="62184218 -62184218 -146779315#3 -146779315#1 -145733608#2 -145733608#1 -145733661#0 310367478#6 310367478#8 310367478#10 310367478#12 310367478#14 310367478#17 135926830#0 26658396 135926827 135926833#0 160207518 4395103#0 145687075 145671610#0 145671610#2 145671610#4 145671609#0 145671609#2 132540161#0 132540161#1 132540161#2 132540161#3 275825294#0 275825294#1 132540158#0 205976505#2 205976505#4 205976505#5 132540396#0 275833366 132540394#0 132540394#2 275833365#1 275833365#2 159576258 132540354 132540217 158695458 132539906 283073226 283073225 25798236 283068673 125777193 283068678 235824473 4400127 4400126 4400143#0 235824475 178797123 233553030#0 235824479 230940376#0 227833724 204177813#0 154520784#0 4229595 202527579 -130140307#3 86121606#0 86121606#1 230336787#0 230336787#1 86121607 -86121607"/>
    </vehicle>
    <vehicle id="52468_52468_370_0"  depart="1.00">
        <route edges="26389403 -26389704 8437606#4 8437606#6 8437606#8 8437606#10 8437606#11 8437606#13 8437606#15 8437606#16 23950313#0 23950313#1 23950313#2 23950313#3 24217868#1 -360679944#0 23823890#3 23823890#0 360679945#0 23839285 23823798 355190823#7 28895629#0 28895629#1 291503929#1 30834492#0 30582561#0 185283370#0 26493930 42739994#0 26493958 185283366 185283367 185283368 37744228#0 8659392 275833364 349784055 349784050 157424492 157326840#0 157314765#0 24393471#0 28372583 32530227 94587467#0 94587467#1 219223559 161704952#0 161704952#1 161704952#2 161704952#3 161704952#4 161704952#6 31737615#0 31737615#1 31737615#2 23654646#0 23654646#1 6186298 54579741#0 6187381#0 6187381#1 6187381#3 6187381#5 6187381#8 23686296#0 144886435 23686314#1"/>
    </vehicle>
    <vehicle id="33539_33539_351_0"  depart="2.00">
        <route edges="4395102#0 -4395102#2 146515699 255597840#0 111465052 146515705#1 275157692 275157694 146515650 275157691 219205206 315647745 132624407 132624417 208913382 244590098 132624414 219205207 132530710 219205211 301084446 219205212 301084451 301084458 132530884 301084494 301084482 338209139 132525350 132406529 338407178#0 338407178#1 70913328#0 -226991212 176886897#0 -338407166 217948273#0 217948270 52583987#0 226991209#0 226991209#2 160207522 256340303 45437755#0 45437755#6 293781697 -132405238 132405256 132405266#1 132405266#2 132405266#4 -132405274#2 332301933#0 205961481#0 205961481#2 149665000 37744227#4 37744227#5 37744227#6 204177818#0 36772534#0 36772534#3 24037708#0 41836764 24035788#0 37873581 142301793 37791102#2 37791102#3 37791102#4 22949991 202650029#0 154755109 219188460#0 219188460#1 154755110 86415860#0 86415860#1 88680005#0 203971499#0 203971501 4400318#0 4400318#3 48591635#0 23568429 48591634 50557487 188052918#1 154755085#0 154755085#1 83703645 23493040 23493177#0 154755122#0 29207110 36564599"/>
    </vehicle>
    <vehicle id="33968_33968_351_0"  depart="2.00">
        <route edges="129526631#6 -129526631#8 25585105#0 235820586#0 198155966 235820579#0 235820580#0 235820577 202540278 202540277 36253944 202524694 36253948 202524691 235820575#0 202524690#0 7767821 235820587-AddedOnRampEdge 235820587 235820594 235820564 235820570 189189059 4400138 235824484 20662822 235824486 4400128 144906990 47335018 4008416#1-AddedOnRampEdge 4008416#1 133849128 235824467 235824467-AddedOffRampEdge 30760401 30760401-AddedOffRampEdge 144906987 30760402#1-AddedOnRampEdge 30760402#1 30760402#1-AddedOffRampEdge 10089982 10089982-AddedOffRampEdge 71505393#0 81975143#0 -31972035#1 -27405957#2 -44498588#8 -44498588#2 -27405729#2 -27405729#1 -203137305#4 203138156 -85695039#5 -85695040#1 -23885207#1 -4229599#2 4229606#0 4229606#1 157104085#0 157104085#1 157104085#2 203165819 150109684#1 8131653#0 20446302 -20446164#2 20446164#1"/>
    </vehicle>
    <vehicle id="36204_36204_355_0"  depart="2.00">
        <route edges="149777365#0 -149783813 -99295049#0 7751121#0 7751121#1 61733552#0 61733552#2 -26184169 7752525#0 7752525#5 7752525#6 7754178 143902981#0 143902981#1 143902981#5 143902981#6 143902981#7 128988786#3 61733075#0 61733075#2 30853755#0 202544069 150921686#1 254657880 129325682 202524702 36253948 202524691 235820575#0 202524690#0 7767821 235820587-AddedOnRampEdge 235820587 235820594 235820564 235820570 189189059 4400138 235824484 20662822 235824486 4400128 144906990 47335018 4008416#1-AddedOnRampEdge 4008416#1 133849128 235824467 235824467-AddedOffRampEdge 30760401 30760401-AddedOffRampEdge 144906987 30760402#1-AddedOnRampEdge 30760402#1 30760402#1-AddedOffRampEdge 10089982 10089982-AddedOffRampEdge 71505393#0 81975143#0 -31972035#1 -27405957#2 -44498588#8 -44498588#2 -27405729#2 -27405729#1 -203137305#4 203138156 -85695039#5 -85695040#1 -23885207#1 -4229599#2 4229606#0 4229606#1 157104085#0 157104085#1 157104085#2 203165819 150109684#1 8131653#0"/>
    </vehicle>
    <vehicle id="37041_37041_357_0"  depart="2.00">